/*--------------------------------*- C++ -*----------------------------------*\
| =========                 |                                                 |
| \\      /  F ield         | OpenFOAM: The Open Source CFD Toolbox           |
|  \\    /   O peration     | Version:  v2512                                 |
|   \\  /    A nd           | Website:  www.openfoam.com                      |
|    \\/     M anipulation  |                                                 |
\*---------------------------------------------------------------------------*/
FoamFile
{
    version     2.0;
    format      ascii;
    class       dictionary;
    object      controlDict;
}
// * * * * * * * * * * * * * * * * * * * * * * * * * * * * * * * * * * * * * //

application     simpleFoam;

startFrom       startTime;

startTime       0;

stopAt          endTime;

endTime         5000;

deltaT          1;

writeControl    timeStep;

writeInterval   50;

purgeWrite      1;

writeFormat     ascii;

writePrecision  6;

writeCompression off;

timeFormat      general;

timePrecision   6;

runTimeModifiable true;

functions
{
    momErr
    {
        type            momentumError;
        libs            (fieldFunctionObjects);
        executeControl  writeTime;
        writeControl    writeTime;
    }

    contErr
    {
        type            div;
        libs            (fieldFunctionObjects);
        field           phi;
        executeControl  writeTime;
        writeControl    writeTime;
    }


    turbulenceFields1
    {
        type            turbulenceFields;
        libs            (fieldFunctionObjects);
        fields
        (
            k
            epsilon
            nut
            nuEff
            R
            devReff
            L
            I
        );

        executeControl  writeTime;
        writeControl    writeTime;
    }

    mag1
    {
        type            mag;
        libs            (fieldFunctionObjects);
        field           turbulenceProperties:R;

        result          magR;
        executeControl  writeTime;
        writeControl    writeTime;
    }

    forces
    {
        type            forceCoeffs;
        libs            (forces);
        writeControl    timeStep;
        writeInterval   1;
        patches         (airfoil);
        rho             rhoInf;
        rhoInf          1.0;
        dragDir (0.99027 0.13917 0);
        liftDir (-0.13917 0.99027 0);
        CofR            (0.25 0 0);
        magUInf         0.3;
        lRef            1.0;
        Aref            0.1;
    }
}


// ************************************************************************* //
